CRYSTAL
# Primitive lattice vectors in Angstrom
PRIMVEC
 3.34889825670968 0.00000000000000 1.93348731000000
 1.11629941890323 3.15737155576429 1.93348731000000
 0.00000000000000 0.00000000000000 3.86697462000000
# Cartesian coordinates in Angstrom.
PRIMCOORD
 2 1
14     0.00000000000000     0.00000000000000     0.00000000000000
14     1.11629941890323     0.78934288894107     1.93348731000000